6
CELL(abcABC):  200.000000 200.000000 200.000000 90.000000 90.000000 90.000000 cell{atomic_unit}  Traj: positions{angstrom}   Bead:       0
H 1.338425323 1.62740171155 1.38890681768
C 0.598285319496 0.737062005538 0.619126018436
H 0.018252994271 0.127245881776 1.31197307454
H 1.31299529438 0.141288808245 0.0511487639795
H -0.0403431338602 1.33632475547 -0.0300193501007
H 1.8032591269 2.18626697297 1.87196106228
